test/syste_test_IEEE13bus_timeSeries/IEEE13Nodeckt_Curr_Seq.Txt

SYMMETRICAL COMPONENT CURRENTS BY CIRCUIT ELEMENT (first 3 phases)

Element            Term      I1         I2         %I2/I1    I0         %I0/I1   %Normal %Emergency

"VSOURCE.SOURCE" .   1       4.755      0.79392    16.70  1.2127E-12     0.00      0.00     0.00
   -                 2       4.755      0.79392    16.70  1.2127E-12     0.00      0.00     0.00
"TRANSFORMER.SUB"    1       4.755      0.79392    16.70  1.0846E-11     0.00     19.88    14.58
   -                 2      131.45       21.947    16.70      1.2246     0.93      0.00     0.00
"TRANSFORMER.REG1"   1      136.44            0     0.00           0     0.00     17.87    13.10
   -                 2      133.11            0     0.00           0     0.00      0.00     0.00
"TRANSFORMER.REG2"   1       110.7            0     0.00           0     0.00     14.50    10.63
   -                 2      108.67            0     0.00           0     0.00      0.00     0.00
"TRANSFORMER.REG3"   1      149.72            0     0.00           0     0.00     19.61    14.38
   -                 2      146.07            0     0.00           0     0.00      0.00     0.00
"TRANSFORMER.XFM1"   1      17.952       1.6306     9.08      1.6659     9.28     27.79    20.38
   -                 2      155.59       14.132     9.08      14.438     9.28      0.00     0.00
"CAPACITOR.CAP1" .   1      85.273      0.57951     0.68     0.23558     0.28      0.00     0.00
   -                 2      85.273      0.57951     0.68     0.23558     0.28      0.00     0.00
"CAPACITOR.CAP2" .   1      42.794            0     0.00           0     0.00      0.00     0.00
   -                 2      42.794            0     0.00           0     0.00      0.00     0.00
"LINE.650632" ....   1      128.46       21.219    16.52      1.0135     0.79     36.52    24.34
   -                 2      128.46       21.219    16.52      1.0135     0.79      0.00     0.00
"LINE.632670" ....   1      105.93       34.461    32.53      7.7411     7.31     33.61    22.41
   -                 2      105.93       34.461    32.53      7.7411     7.31      0.00     0.00
"LINE.670671" ....   1      101.23       35.884    35.45      8.1565     8.06     31.79    21.20
   -                 2      101.23       35.884    35.45      8.1565     8.06      0.00     0.00
"LINE.671680" ....   1  0.00059677    3.8566E-6     0.65   6.1187E-7     0.10      0.00     0.00
   -                 2  1.9916E-12   1.0865E-12    54.56  2.8318E-12   142.19      0.00     0.00
"LINE.632633" ....   1      17.952       1.6306     9.08      1.6659     9.28      5.30     3.54
   -                 2      17.952       1.6306     9.08      1.6659     9.28      0.00     0.00
"LINE.632645" ....   1      38.255            0     0.00           0     0.00      9.56     6.38
   -                 2      38.255            0     0.00           0     0.00      0.00     0.00
"LINE.645646" ....   1      17.303            0     0.00           0     0.00      4.33     2.88
   -                 2      17.303            0     0.00           0     0.00      0.00     0.00
"LINE.692675" ....   1      75.008       11.484    15.31       16.86    22.48     20.74    13.83
   -                 2      74.978       11.484    15.32       16.86    22.49      0.00     0.00
"LINE.671684" ....   1       17.33            0     0.00           0     0.00      4.33     2.89
   -                 2       17.33            0     0.00           0     0.00      0.00     0.00
"LINE.684611" ....   1      38.808            0     0.00           0     0.00      9.70     6.47
   -                 2      38.808            0     0.00           0     0.00      0.00     0.00
"LINE.684652" ....   1       17.33            0     0.00           0     0.00      4.33     2.89
   -                 2      17.348            0     0.00           0     0.00      0.00     0.00
"LINE.671692" ....   1      72.867       18.342    25.17       16.86    23.14     19.91    13.28
   -                 2      72.867       18.342    25.17       16.86    23.14      0.00     0.00
"LOAD.671" .......   1      47.948    0.0020058     0.00  5.5511E-16     0.00      0.00     0.00
"LOAD.634A" ......   1      183.85            0     0.00           0     0.00      0.00     0.00
"LOAD.634B" ......   1      141.68            0     0.00           0     0.00      0.00     0.00
"LOAD.634C" ......   1      141.32            0     0.00           0     0.00      0.00     0.00
"LOAD.645" .......   1       22.93            0     0.00           0     0.00      0.00     0.00
"LOAD.646" .......   1      17.302            0     0.00           0     0.00      0.00     0.00
"LOAD.692" .......   1      14.529            0     0.00           0     0.00      0.00     0.00
"LOAD.675A" ......   1      56.713            0     0.00           0     0.00      0.00     0.00
"LOAD.675B" ......   1      9.7475            0     0.00           0     0.00      0.00     0.00
"LOAD.675C" ......   1      38.748            0     0.00           0     0.00      0.00     0.00
"LOAD.611" .......   1      20.809            0     0.00           0     0.00      0.00     0.00
"LOAD.652" .......   1      17.348            0     0.00           0     0.00      0.00     0.00
"LOAD.670A" ......   1      2.1418            0     0.00           0     0.00      0.00     0.00
"LOAD.670B" ......   1      8.2384            0     0.00           0     0.00      0.00     0.00
"LOAD.670C" ......   1      14.627            0     0.00           0     0.00      0.00     0.00
