test/syste_test_IEEE13bus_timeSeries/IEEE13Nodeckt_Losses.Txt

LOSSES REPORT

Power Delivery Element Loss Report

Element                  kW Losses    % of Power   kvar Losses

"Transformer.SUB"    0.00184,     0.00     0.0189219
"Transformer.REG1"   0.00644,     0.00     0.00814678
"Transformer.REG2"   0.00424,     0.00     0.00593759
"Transformer.REG3"   0.00775,     0.00     0.00946118
"Transformer.XFM1"   0.37432,     0.35     0.681097
"Capacitor.CAP1"     0.00000,      0.0     -629.22
"Capacitor.CAP2"     0.00000,      0.0     -105.485
"Line.650632"        3.58434,     0.38     11.7104
"Line.632670"        0.89121,     0.12     2.98142
"Line.670671"        1.66067,     0.25     5.58323
"Line.671680"        0.00000,      0.0     -0.00440123
"Line.632633"        0.05555,     0.05     0.0691617
"Line.632645"        0.19695,     0.18     0.171124
"Line.645646"        0.03810,     0.06     0.0295792
"Line.692675"        0.90943,     0.40     0.472293
"Line.671684"        0.12334,     0.15     0.108709
"Line.684611"        0.11374,     0.24     0.114945
"Line.684652"        0.06116,     0.17     -0.0568951
"Line.671692"        0.00000,      0.0     0

LINE LOSSES=                         7.6 kW
TRANSFORMER LOSSES=                  0.4 kW

TOTAL LOSSES=                        8.0 kW

TOTAL LOAD POWER =                 927.1 kW
Percent Losses for Circuit =      0.87 %
