test/syste_test_IEEE13bus_timeSeries/IEEE13Nodeckt_VLN_Node.Txt

LINE-GROUND and LINE-LINE VOLTAGES BY BUS & NODE

Bus       Node    VLN (kV)   Angle      pu     Base kV    Node-Node   VLL (kV)  Angle      pu

SOURCEBUS 1       66.401 /_   30.0    1.0001   115.000        1-2     115.01 /_   60.0    1.0001
   -      2       66.402 /_  -90.0    1.0001   115.000        2-3     115.01 /_  -60.0    1.0001
   -      3       66.401 /_  150.0    1.0001   115.000        3-1     115.01 /_  180.0    1.0001
650 ..... 1        2.402 /_    0.0    1.0001     4.160        1-2     4.1604 /_   30.0    1.0001
   -      2        2.402 /_ -120.0    1.0001     4.160        2-3     4.1604 /_  -90.0    1.0001
   -      3        2.402 /_  120.0    1.0001     4.160        3-1     4.1604 /_  150.0    1.0001
RG60 .... 1        2.462 /_    0.0    1.0251     4.160        1-2     4.2513 /_   29.9     1.022
   -      2        2.447 /_ -120.0    1.0188     4.160        2-3     4.2514 /_  -89.9     1.022
   -      3        2.462 /_  120.0    1.0251     4.160        3-1     4.2643 /_  150.0    1.0251
633 ..... 1       2.4479 /_   -0.7    1.0192     4.160        1-2     4.2399 /_   29.4    1.0192
   -      2       2.4507 /_ -120.6    1.0204     4.160        2-3     4.2554 /_  -90.7    1.0229
   -      3        2.457 /_  119.2     1.023     4.160        3-1     4.2449 /_  149.2    1.0204
634 ..... 1      0.28072 /_   -0.9     1.013     0.480        1-2    0.48642 /_   29.2    1.0134
   -      2      0.28141 /_ -120.7    1.0155     0.480        2-3    0.48865 /_  -90.8     1.018
   -      3      0.28214 /_  119.0    1.0181     0.480        3-1    0.48726 /_  149.0    1.0151
671 ..... 1       2.4429 /_   -1.4    1.0171     4.160        1-2     4.2419 /_   29.0    1.0197
   -      2       2.4693 /_ -120.9    1.0281     4.160        2-3     4.2852 /_  -91.2    1.0301
   -      3       2.4626 /_  118.5    1.0253     4.160        3-1     4.2464 /_  148.4    1.0208
645 ..... 2        2.446 /_ -120.6    1.0184     4.160        2-3     4.2507 /_  -90.7    1.0218
   -      3       2.4574 /_  119.2    1.0232     4.160
646 ..... 2       2.4449 /_ -120.7     1.018     4.160        2-3     4.2479 /_  -90.7    1.0211
   -      3       2.4561 /_  119.2    1.0226     4.160
692 ..... 1       2.4429 /_   -1.4    1.0171     4.160        1-2     4.2419 /_   29.0    1.0197
   -      2       2.4693 /_ -120.9    1.0281     4.160        2-3     4.2852 /_  -91.2    1.0301
   -      3       2.4626 /_  118.5    1.0253     4.160        3-1     4.2464 /_  148.4    1.0208
675 ..... 1       2.4414 /_   -1.6    1.0165     4.160        1-2     4.2431 /_   28.9      1.02
   -      2       2.4729 /_ -121.0    1.0296     4.160        2-3     4.2888 /_  -91.3     1.031
   -      3       2.4643 /_  118.4     1.026     4.160        3-1     4.2482 /_  148.3    1.0212
611 ..... 3       2.4649 /_  118.3    1.0263     4.160
652 ..... 1       2.4378 /_   -1.4     1.015     4.160
670 ..... 1       2.4477 /_   -0.9    1.0191     4.160        1-2     4.2422 /_   29.2    1.0198
   -      2       2.4572 /_ -120.7    1.0231     4.160        2-3     4.2664 /_  -90.9    1.0256
   -      3       2.4592 /_  118.9    1.0239     4.160        3-1     4.2463 /_  148.9    1.0207
632 ..... 1       2.4498 /_   -0.7      1.02     4.160        1-2     4.2427 /_   29.4    1.0199
   -      2       2.4519 /_ -120.6    1.0209     4.160        2-3     4.2581 /_  -90.7    1.0236
   -      3       2.4586 /_  119.2    1.0237     4.160        3-1     4.2477 /_  149.2    1.0211
680 ..... 1       2.4429 /_   -1.4    1.0171     4.160        1-2     4.2419 /_   29.0    1.0197
   -      2       2.4693 /_ -120.9    1.0281     4.160        2-3     4.2852 /_  -91.2    1.0301
   -      3       2.4626 /_  118.5    1.0253     4.160        3-1     4.2464 /_  148.4    1.0208
684 ..... 1       2.4415 /_   -1.4    1.0165     4.160
   -      3       2.4638 /_  118.4    1.0258     4.160        3-1     4.2442 /_  148.3    1.0202
